*HEADING
*NODE, NSET=ALLNODES, input=F4Node.txt
*ELEMENT, TYPE=C3D8, ELSET=ALL, input=F4EL.txt
*Nset, nset=Load
14676
*Nset, nset=Inner1
1
*Nset, nset=Inner2
511
*Nset, nset=Inner3
481
*Elset, Elset=XZ
13486
*Elset, Elset=XY
13065
*Elset, Elset=YZ
13050
*Nset, nset=Surf-In-1
  481,   482,   483,   484,   485,   486,   487,   488,   489,   490,   491,   492,   493,   494,   495,   496
  511,   526,   541,   556,   571,   586,   601,   616,   631,   646,   661,   676,   691,   706,   721,  1202
 1203,  1204,  1205,  1206,  1207,  1208,  1209,  1210,  1211,  1212,  1213,  1214,  1215,  1216,  1217,  1232
 1247,  1262,  1277,  1292,  1307,  1322,  1337,  1352,  1367,  1382,  1397,  1412,  1427,  1442,  1923,  1924
 1925,  1926,  1927,  1928,  1929,  1930,  1931,  1932,  1933,  1934,  1935,  1936,  1937,  1938,  1953,  1968
 1983,  1998,  2013,  2028,  2043,  2058,  2073,  2088,  2103,  2118,  2133,  2148,  2163,  2644,  2645,  2646
 2647,  2648,  2649,  2650,  2651,  2652,  2653,  2654,  2655,  2656,  2657,  2658,  2659,  2674,  2689,  2704
 2719,  2734,  2749,  2764,  2779,  2794,  2809,  2824,  2839,  2854,  2869,  2884,  3365,  3366,  3367,  3368
 3369,  3370,  3371,  3372,  3373,  3374,  3375,  3376,  3377,  3378,  3379,  3380,  3395,  3410,  3425,  3440
 3455,  3470,  3485,  3500,  3515,  3530,  3545,  3560,  3575,  3590,  3605,  4086,  4087,  4088,  4089,  4090
 4091,  4092,  4093,  4094,  4095,  4096,  4097,  4098,  4099,  4100,  4101,  4116,  4131,  4146,  4161,  4176
 4191,  4206,  4221,  4236,  4251,  4266,  4281,  4296,  4311,  4326,  4807,  4808,  4809,  4810,  4811,  4812
 4813,  4814,  4815,  4816,  4817,  4818,  4819,  4820,  4821,  4822,  4837,  4852,  4867,  4882,  4897,  4912
 4927,  4942,  4957,  4972,  4987,  5002,  5017,  5032,  5047,  5528,  5529,  5530,  5531,  5532,  5533,  5534
 5535,  5536,  5537,  5538,  5539,  5540,  5541,  5542,  5543,  5558,  5573,  5588,  5603,  5618,  5633,  5648
 5663,  5678,  5693,  5708,  5723,  5738,  5753,  5768,  6249,  6250,  6251,  6252,  6253,  6254,  6255,  6256
 6257,  6258,  6259,  6260,  6261,  6262,  6263,  6264,  6279,  6294,  6309,  6324,  6339,  6354,  6369,  6384
 6399,  6414,  6429,  6444,  6459,  6474,  6489,  6970,  6971,  6972,  6973,  6974,  6975,  6976,  6977,  6978
 6979,  6980,  6981,  6982,  6983,  6984,  6985,  7000,  7015,  7030,  7045,  7060,  7075,  7090,  7105,  7120
 7135,  7150,  7165,  7180,  7195,  7210,  7691,  7692,  7693,  7694,  7695,  7696,  7697,  7698,  7699,  7700
** ... 21 like lines cut
*Nset, nset=Surf-In-2
    1,    17,    33,    49,    65,    81,    97,   113,   129,   145,   161,   177,   193,   209,   225,   241
  257,   273,   289,   305,   321,   337,   353,   369,   385,   401,   417,   433,   449,   465,   481,   722
  738,   754,   770,   786,   802,   818,   834,   850,   866,   882,   898,   914,   930,   946,   962,   978
  994,  1010,  1026,  1042,  1058,  1074,  1090,  1106,  1122,  1138,  1154,  1170,  1186,  1202,  1443,  1459
 1475,  1491,  1507,  1523,  1539,  1555,  1571,  1587,  1603,  1619,  1635,  1651,  1667,  1683,  1699,  1715
 1731,  1747,  1763,  1779,  1795,  1811,  1827,  1843,  1859,  1875,  1891,  1907,  1923,  2164,  2180,  2196
 2212,  2228,  2244,  2260,  2276,  2292,  2308,  2324,  2340,  2356,  2372,  2388,  2404,  2420,  2436,  2452
 2468,  2484,  2500,  2516,  2532,  2548,  2564,  2580,  2596,  2612,  2628,  2644,  2885,  2901,  2917,  2933
 2949,  2965,  2981,  2997,  3013,  3029,  3045,  3061,  3077,  3093,  3109,  3125,  3141,  3157,  3173,  3189
 3205,  3221,  3237,  3253,  3269,  3285,  3301,  3317,  3333,  3349,  3365,  3606,  3622,  3638,  3654,  3670
 3686,  3702,  3718,  3734,  3750,  3766,  3782,  3798,  3814,  3830,  3846,  3862,  3878,  3894,  3910,  3926
 3942,  3958,  3974,  3990,  4006,  4022,  4038,  4054,  4070,  4086,  4327,  4343,  4359,  4375,  4391,  4407
 4423,  4439,  4455,  4471,  4487,  4503,  4519,  4535,  4551,  4567,  4583,  4599,  4615,  4631,  4647,  4663
 4679,  4695,  4711,  4727,  4743,  4759,  4775,  4791,  4807,  5048,  5064,  5080,  5096,  5112,  5128,  5144
 5160,  5176,  5192,  5208,  5224,  5240,  5256,  5272,  5288,  5304,  5320,  5336,  5352,  5368,  5384,  5400
 5416,  5432,  5448,  5464,  5480,  5496,  5512,  5528,  5769,  5785,  5801,  5817,  5833,  5849,  5865,  5881
 5897,  5913,  5929,  5945,  5961,  5977,  5993,  6009,  6025,  6041,  6057,  6073,  6089,  6105,  6121,  6137
 6153,  6169,  6185,  6201,  6217,  6233,  6249,  6490,  6506,  6522,  6538,  6554,  6570,  6586,  6602,  6618
 6634,  6650,  6666,  6682,  6698,  6714,  6730,  6746,  6762,  6778,  6794,  6810,  6826,  6842,  6858,  6874
 6890,  6906,  6922,  6938,  6954,  6970,  7211,  7227,  7243,  7259,  7275,  7291,  7307,  7323,  7339,  7355
** ... 21 like lines cut
*Nset, nset=Surf-In-3
    1,     2,     3,     4,     5,     6,     7,     8,     9,    10,    11,    12,    13,    14,    15,    16
  497,   498,   499,   500,   501,   502,   503,   504,   505,   506,   507,   508,   509,   510,   511,   722
  723,   724,   725,   726,   727,   728,   729,   730,   731,   732,   733,   734,   735,   736,   737,  1218
 1219,  1220,  1221,  1222,  1223,  1224,  1225,  1226,  1227,  1228,  1229,  1230,  1231,  1232,  1443,  1444
 1445,  1446,  1447,  1448,  1449,  1450,  1451,  1452,  1453,  1454,  1455,  1456,  1457,  1458,  1939,  1940
 1941,  1942,  1943,  1944,  1945,  1946,  1947,  1948,  1949,  1950,  1951,  1952,  1953,  2164,  2165,  2166
 2167,  2168,  2169,  2170,  2171,  2172,  2173,  2174,  2175,  2176,  2177,  2178,  2179,  2660,  2661,  2662
 2663,  2664,  2665,  2666,  2667,  2668,  2669,  2670,  2671,  2672,  2673,  2674,  2885,  2886,  2887,  2888
 2889,  2890,  2891,  2892,  2893,  2894,  2895,  2896,  2897,  2898,  2899,  2900,  3381,  3382,  3383,  3384
 3385,  3386,  3387,  3388,  3389,  3390,  3391,  3392,  3393,  3394,  3395,  3606,  3607,  3608,  3609,  3610
 3611,  3612,  3613,  3614,  3615,  3616,  3617,  3618,  3619,  3620,  3621,  4102,  4103,  4104,  4105,  4106
 4107,  4108,  4109,  4110,  4111,  4112,  4113,  4114,  4115,  4116,  4327,  4328,  4329,  4330,  4331,  4332
 4333,  4334,  4335,  4336,  4337,  4338,  4339,  4340,  4341,  4342,  4823,  4824,  4825,  4826,  4827,  4828
 4829,  4830,  4831,  4832,  4833,  4834,  4835,  4836,  4837,  5048,  5049,  5050,  5051,  5052,  5053,  5054
 5055,  5056,  5057,  5058,  5059,  5060,  5061,  5062,  5063,  5544,  5545,  5546,  5547,  5548,  5549,  5550
 5551,  5552,  5553,  5554,  5555,  5556,  5557,  5558,  5769,  5770,  5771,  5772,  5773,  5774,  5775,  5776
 5777,  5778,  5779,  5780,  5781,  5782,  5783,  5784,  6265,  6266,  6267,  6268,  6269,  6270,  6271,  6272
 6273,  6274,  6275,  6276,  6277,  6278,  6279,  6490,  6491,  6492,  6493,  6494,  6495,  6496,  6497,  6498
 6499,  6500,  6501,  6502,  6503,  6504,  6505,  6986,  6987,  6988,  6989,  6990,  6991,  6992,  6993,  6994
 6995,  6996,  6997,  6998,  6999,  7000,  7211,  7212,  7213,  7214,  7215,  7216,  7217,  7218,  7219,  7220
** ... 21 like lines cut
*Nset, nset=Surf-Out-1
14421, 14422, 14423, 14424, 14425, 14426, 14427, 14428, 14429, 14430, 14431, 14432, 14433, 14434, 14435, 14436
14437, 14438, 14439, 14440, 14441, 14442, 14443, 14444, 14445, 14446, 14447, 14448, 14449, 14450, 14451, 14452
14453, 14454, 14455, 14456, 14457, 14458, 14459, 14460, 14461, 14462, 14463, 14464, 14465, 14466, 14467, 14468
14469, 14470, 14471, 14472, 14473, 14474, 14475, 14476, 14477, 14478, 14479, 14480, 14481, 14482, 14483, 14484
14485, 14486, 14487, 14488, 14489, 14490, 14491, 14492, 14493, 14494, 14495, 14496, 14497, 14498, 14499, 14500
14501, 14502, 14503, 14504, 14505, 14506, 14507, 14508, 14509, 14510, 14511, 14512, 14513, 14514, 14515, 14516
14517, 14518, 14519, 14520, 14521, 14522, 14523, 14524, 14525, 14526, 14527, 14528, 14529, 14530, 14531, 14532
14533, 14534, 14535, 14536, 14537, 14538, 14539, 14540, 14541, 14542, 14543, 14544, 14545, 14546, 14547, 14548
14549, 14550, 14551, 14552, 14553, 14554, 14555, 14556, 14557, 14558, 14559, 14560, 14561, 14562, 14563, 14564
14565, 14566, 14567, 14568, 14569, 14570, 14571, 14572, 14573, 14574, 14575, 14576, 14577, 14578, 14579, 14580
14581, 14582, 14583, 14584, 14585, 14586, 14587, 14588, 14589, 14590, 14591, 14592, 14593, 14594, 14595, 14596
14597, 14598, 14599, 14600, 14601, 14602, 14603, 14604, 14605, 14606, 14607, 14608, 14609, 14610, 14611, 14612
14613, 14614, 14615, 14616, 14617, 14618, 14619, 14620, 14621, 14622, 14623, 14624, 14625, 14626, 14627, 14628
14629, 14630, 14631, 14632, 14633, 14634, 14635, 14636, 14637, 14638, 14639, 14640, 14641, 14642, 14643, 14644
14645, 14646, 14647, 14648, 14649, 14650, 14651, 14652, 14653, 14654, 14655, 14656, 14657, 14658, 14659, 14660
14661, 14662, 14663, 14664, 14665, 14666, 14667, 14668, 14669, 14670, 14671, 14672, 14673, 14674, 14675, 
*Nset, nset=Surf-Out-2
14436, 14452, 14468, 14484, 14500, 14516, 14532, 14548, 14564, 14580, 14596, 14612, 14628, 14644, 14660, 
14692, 14708, 14724, 14740, 14756, 14772, 14788, 14804, 14820, 14836, 14852, 14868, 14884, 14900, 14916, 14917
14918, 14919, 14920, 14921, 14922, 14923, 14924, 14925, 14926, 14927, 14928, 14929, 14930, 14931, 14932, 14933
14934, 14935, 14936, 14937, 14938, 14939, 14940, 14941, 14942, 14943, 14944, 14945, 14946, 14947, 14948, 14949
14950, 14951, 14952, 14953, 14954, 14955, 14956, 14957, 14958, 14959, 14960, 14961, 14962, 14963, 14964, 14965
14966, 14967, 14968, 14969, 14970, 14971, 14972, 14973, 14974, 14975, 14976, 14977, 14978, 14979, 14980, 14981
14982, 14983, 14984, 14985, 14986, 14987, 14988, 14989, 14990, 14991, 14992, 14993, 14994, 14995, 14996, 14997
14998, 14999, 15000, 15001, 15002, 15003, 15004, 15005, 15006, 15007, 15008, 15009, 15010, 15011, 15012, 15013
15014, 15015, 15016, 15017, 15018, 15019, 15020, 15021, 15022, 15023, 15024, 15025, 15026, 15027, 15028, 15029
15030, 15031, 15032, 15033, 15034, 15035, 15036, 15037, 15038, 15039, 15040, 15041, 15042, 15043, 15044, 15045
15046, 15047, 15048, 15049, 15050, 15051, 15052, 15053, 15054, 15055, 15056, 15057, 15058, 15059, 15060, 15061
15062, 15063, 15064, 15065, 15066, 15067, 15068, 15069, 15070, 15071, 15072, 15073, 15074, 15075, 15076, 15077
15078, 15079, 15080, 15081, 15082, 15083, 15084, 15085, 15086, 15087, 15088, 15089, 15090, 15091, 15092, 15093
15094, 15095, 15096, 15097, 15098, 15099, 15100, 15101, 15102, 15103, 15104, 15105, 15106, 15107, 15108, 15109
15110, 15111, 15112, 15113, 15114, 15115, 15116, 15117, 15118, 15119, 15120, 15121, 15122, 15123, 15124, 15125
15126, 15127, 15128, 15129, 15130, 15131, 15132, 15133, 15134, 15135, 15136, 15137, 15138, 15139, 15140, 15141
*Nset, nset=Surf-Out-3
14661, 14662, 14663, 14664, 14665, 14666, 14667, 14668, 14669, 14670, 14671, 14672, 14673, 14674, 14675, 
14677, 14678, 14679, 14680, 14681, 14682, 14683, 14684, 14685, 14686, 14687, 14688, 14689, 14690, 14691, 14692
14693, 14694, 14695, 14696, 14697, 14698, 14699, 14700, 14701, 14702, 14703, 14704, 14705, 14706, 14707, 14708
14709, 14710, 14711, 14712, 14713, 14714, 14715, 14716, 14717, 14718, 14719, 14720, 14721, 14722, 14723, 14724
14725, 14726, 14727, 14728, 14729, 14730, 14731, 14732, 14733, 14734, 14735, 14736, 14737, 14738, 14739, 14740
14741, 14742, 14743, 14744, 14745, 14746, 14747, 14748, 14749, 14750, 14751, 14752, 14753, 14754, 14755, 14756
14757, 14758, 14759, 14760, 14761, 14762, 14763, 14764, 14765, 14766, 14767, 14768, 14769, 14770, 14771, 14772
14773, 14774, 14775, 14776, 14777, 14778, 14779, 14780, 14781, 14782, 14783, 14784, 14785, 14786, 14787, 14788
14789, 14790, 14791, 14792, 14793, 14794, 14795, 14796, 14797, 14798, 14799, 14800, 14801, 14802, 14803, 14804
14805, 14806, 14807, 14808, 14809, 14810, 14811, 14812, 14813, 14814, 14815, 14816, 14817, 14818, 14819, 14820
14821, 14822, 14823, 14824, 14825, 14826, 14827, 14828, 14829, 14830, 14831, 14832, 14833, 14834, 14835, 14836
14837, 14838, 14839, 14840, 14841, 14842, 14843, 14844, 14845, 14846, 14847, 14848, 14849, 14850, 14851, 14852
14853, 14854, 14855, 14856, 14857, 14858, 14859, 14860, 14861, 14862, 14863, 14864, 14865, 14866, 14867, 14868
14869, 14870, 14871, 14872, 14873, 14874, 14875, 14876, 14877, 14878, 14879, 14880, 14881, 14882, 14883, 14884
14885, 14886, 14887, 14888, 14889, 14890, 14891, 14892, 14893, 14894, 14895, 14896, 14897, 14898, 14899, 14900
14901, 14902, 14903, 14904, 14905, 14906, 14907, 14908, 14909, 14910, 14911, 14912, 14913, 14914, 14915, 14916
*Solid Section, elset=ALL, material=material1
*Material, name=Material1
*Hyperelastic, neo hooke
0.5, 2
*boundary
Surf-In-1,1,1
Surf-In-2,2,2
Surf-In-3,3,3
*EQUATION
2
Surf-Out-1,1,1,Load,1,-1
2
Surf-Out-2,2,1,Load,2,-1
2
Surf-Out-3,3,1,Load,3,-1
*RESTART,WRITE, frequency=0
**step1
*STEP, Name=step1, NLGEOM=YES, inc=10000000000
*STATIC
0.00001,1,0.0000001,0.01
*boundary
Load,1,1,10
Load,2,2,10
Load,3,3,10
*Output, field, variable=PRESELECT, frequency=1
*Element Output, Elset=XZ, Position=CENTROIDAL
S
*Element Output, Elset=XY, Position=CENTROIDAL
S
*Element Output, Elset=YZ, Position=CENTROIDAL
S
*Output, history, variable=PRESELECT, frequency=1
*Node Output, nset=Load
COOR1,COOR2,COOR3
*Node Output, nset=Inner1
COOR1,COOR2,COOR3
*Node Output, nset=Inner2
COOR1,COOR2,COOR3
*Node Output, nset=Inner3
COOR1,COOR2,COOR3
*END STEP
