*HEADING
*NODE, NSET=ALLNODES, input=F5Node.txt
*ELEMENT, TYPE=C3D8, ELSET=ALL, input=F5EL.txt
*Nset, nset=Load
19002
*Nset, nset=Inner1
1
*Nset, nset=Inner2
511
*Nset, nset=Inner3
481
*Elset, Elset=XZ
17536
*Elset, Elset=XY
17115
*Elset, Elset=YZ
17100
*Nset, nset=Surf-In-1
  481,   482,   483,   484,   485,   486,   487,   488,   489,   490,   491,   492,   493,   494,   495,   496
  511,   526,   541,   556,   571,   586,   601,   616,   631,   646,   661,   676,   691,   706,   721,  1202
 1203,  1204,  1205,  1206,  1207,  1208,  1209,  1210,  1211,  1212,  1213,  1214,  1215,  1216,  1217,  1232
 1247,  1262,  1277,  1292,  1307,  1322,  1337,  1352,  1367,  1382,  1397,  1412,  1427,  1442,  1923,  1924
 1925,  1926,  1927,  1928,  1929,  1930,  1931,  1932,  1933,  1934,  1935,  1936,  1937,  1938,  1953,  1968
 1983,  1998,  2013,  2028,  2043,  2058,  2073,  2088,  2103,  2118,  2133,  2148,  2163,  2644,  2645,  2646
 2647,  2648,  2649,  2650,  2651,  2652,  2653,  2654,  2655,  2656,  2657,  2658,  2659,  2674,  2689,  2704
 2719,  2734,  2749,  2764,  2779,  2794,  2809,  2824,  2839,  2854,  2869,  2884,  3365,  3366,  3367,  3368
 3369,  3370,  3371,  3372,  3373,  3374,  3375,  3376,  3377,  3378,  3379,  3380,  3395,  3410,  3425,  3440
 3455,  3470,  3485,  3500,  3515,  3530,  3545,  3560,  3575,  3590,  3605,  4086,  4087,  4088,  4089,  4090
 4091,  4092,  4093,  4094,  4095,  4096,  4097,  4098,  4099,  4100,  4101,  4116,  4131,  4146,  4161,  4176
 4191,  4206,  4221,  4236,  4251,  4266,  4281,  4296,  4311,  4326,  4807,  4808,  4809,  4810,  4811,  4812
 4813,  4814,  4815,  4816,  4817,  4818,  4819,  4820,  4821,  4822,  4837,  4852,  4867,  4882,  4897,  4912
 4927,  4942,  4957,  4972,  4987,  5002,  5017,  5032,  5047,  5528,  5529,  5530,  5531,  5532,  5533,  5534
 5535,  5536,  5537,  5538,  5539,  5540,  5541,  5542,  5543,  5558,  5573,  5588,  5603,  5618,  5633,  5648
 5663,  5678,  5693,  5708,  5723,  5738,  5753,  5768,  6249,  6250,  6251,  6252,  6253,  6254,  6255,  6256
 6257,  6258,  6259,  6260,  6261,  6262,  6263,  6264,  6279,  6294,  6309,  6324,  6339,  6354,  6369,  6384
 6399,  6414,  6429,  6444,  6459,  6474,  6489,  6970,  6971,  6972,  6973,  6974,  6975,  6976,  6977,  6978
 6979,  6980,  6981,  6982,  6983,  6984,  6985,  7000,  7015,  7030,  7045,  7060,  7075,  7090,  7105,  7120
 7135,  7150,  7165,  7180,  7195,  7210,  7691,  7692,  7693,  7694,  7695,  7696,  7697,  7698,  7699,  7700
** ... 33 like lines cut
*Nset, nset=Surf-In-2
    1,    17,    33,    49,    65,    81,    97,   113,   129,   145,   161,   177,   193,   209,   225,   241
  257,   273,   289,   305,   321,   337,   353,   369,   385,   401,   417,   433,   449,   465,   481,   722
  738,   754,   770,   786,   802,   818,   834,   850,   866,   882,   898,   914,   930,   946,   962,   978
  994,  1010,  1026,  1042,  1058,  1074,  1090,  1106,  1122,  1138,  1154,  1170,  1186,  1202,  1443,  1459
 1475,  1491,  1507,  1523,  1539,  1555,  1571,  1587,  1603,  1619,  1635,  1651,  1667,  1683,  1699,  1715
 1731,  1747,  1763,  1779,  1795,  1811,  1827,  1843,  1859,  1875,  1891,  1907,  1923,  2164,  2180,  2196
 2212,  2228,  2244,  2260,  2276,  2292,  2308,  2324,  2340,  2356,  2372,  2388,  2404,  2420,  2436,  2452
 2468,  2484,  2500,  2516,  2532,  2548,  2564,  2580,  2596,  2612,  2628,  2644,  2885,  2901,  2917,  2933
 2949,  2965,  2981,  2997,  3013,  3029,  3045,  3061,  3077,  3093,  3109,  3125,  3141,  3157,  3173,  3189
 3205,  3221,  3237,  3253,  3269,  3285,  3301,  3317,  3333,  3349,  3365,  3606,  3622,  3638,  3654,  3670
 3686,  3702,  3718,  3734,  3750,  3766,  3782,  3798,  3814,  3830,  3846,  3862,  3878,  3894,  3910,  3926
 3942,  3958,  3974,  3990,  4006,  4022,  4038,  4054,  4070,  4086,  4327,  4343,  4359,  4375,  4391,  4407
 4423,  4439,  4455,  4471,  4487,  4503,  4519,  4535,  4551,  4567,  4583,  4599,  4615,  4631,  4647,  4663
 4679,  4695,  4711,  4727,  4743,  4759,  4775,  4791,  4807,  5048,  5064,  5080,  5096,  5112,  5128,  5144
 5160,  5176,  5192,  5208,  5224,  5240,  5256,  5272,  5288,  5304,  5320,  5336,  5352,  5368,  5384,  5400
 5416,  5432,  5448,  5464,  5480,  5496,  5512,  5528,  5769,  5785,  5801,  5817,  5833,  5849,  5865,  5881
 5897,  5913,  5929,  5945,  5961,  5977,  5993,  6009,  6025,  6041,  6057,  6073,  6089,  6105,  6121,  6137
 6153,  6169,  6185,  6201,  6217,  6233,  6249,  6490,  6506,  6522,  6538,  6554,  6570,  6586,  6602,  6618
 6634,  6650,  6666,  6682,  6698,  6714,  6730,  6746,  6762,  6778,  6794,  6810,  6826,  6842,  6858,  6874
 6890,  6906,  6922,  6938,  6954,  6970,  7211,  7227,  7243,  7259,  7275,  7291,  7307,  7323,  7339,  7355
** ... 33 like lines cut
*Nset, nset=Surf-In-3
    1,     2,     3,     4,     5,     6,     7,     8,     9,    10,    11,    12,    13,    14,    15,    16
  497,   498,   499,   500,   501,   502,   503,   504,   505,   506,   507,   508,   509,   510,   511,   722
  723,   724,   725,   726,   727,   728,   729,   730,   731,   732,   733,   734,   735,   736,   737,  1218
 1219,  1220,  1221,  1222,  1223,  1224,  1225,  1226,  1227,  1228,  1229,  1230,  1231,  1232,  1443,  1444
 1445,  1446,  1447,  1448,  1449,  1450,  1451,  1452,  1453,  1454,  1455,  1456,  1457,  1458,  1939,  1940
 1941,  1942,  1943,  1944,  1945,  1946,  1947,  1948,  1949,  1950,  1951,  1952,  1953,  2164,  2165,  2166
 2167,  2168,  2169,  2170,  2171,  2172,  2173,  2174,  2175,  2176,  2177,  2178,  2179,  2660,  2661,  2662
 2663,  2664,  2665,  2666,  2667,  2668,  2669,  2670,  2671,  2672,  2673,  2674,  2885,  2886,  2887,  2888
 2889,  2890,  2891,  2892,  2893,  2894,  2895,  2896,  2897,  2898,  2899,  2900,  3381,  3382,  3383,  3384
 3385,  3386,  3387,  3388,  3389,  3390,  3391,  3392,  3393,  3394,  3395,  3606,  3607,  3608,  3609,  3610
 3611,  3612,  3613,  3614,  3615,  3616,  3617,  3618,  3619,  3620,  3621,  4102,  4103,  4104,  4105,  4106
 4107,  4108,  4109,  4110,  4111,  4112,  4113,  4114,  4115,  4116,  4327,  4328,  4329,  4330,  4331,  4332
 4333,  4334,  4335,  4336,  4337,  4338,  4339,  4340,  4341,  4342,  4823,  4824,  4825,  4826,  4827,  4828
 4829,  4830,  4831,  4832,  4833,  4834,  4835,  4836,  4837,  5048,  5049,  5050,  5051,  5052,  5053,  5054
 5055,  5056,  5057,  5058,  5059,  5060,  5061,  5062,  5063,  5544,  5545,  5546,  5547,  5548,  5549,  5550
 5551,  5552,  5553,  5554,  5555,  5556,  5557,  5558,  5769,  5770,  5771,  5772,  5773,  5774,  5775,  5776
 5777,  5778,  5779,  5780,  5781,  5782,  5783,  5784,  6265,  6266,  6267,  6268,  6269,  6270,  6271,  6272
 6273,  6274,  6275,  6276,  6277,  6278,  6279,  6490,  6491,  6492,  6493,  6494,  6495,  6496,  6497,  6498
 6499,  6500,  6501,  6502,  6503,  6504,  6505,  6986,  6987,  6988,  6989,  6990,  6991,  6992,  6993,  6994
 6995,  6996,  6997,  6998,  6999,  7000,  7211,  7212,  7213,  7214,  7215,  7216,  7217,  7218,  7219,  7220
** ... 33 like lines cut
*Nset, nset=Surf-Out-1
18747, 18748, 18749, 18750, 18751, 18752, 18753, 18754, 18755, 18756, 18757, 18758, 18759, 18760, 18761, 18762
18763, 18764, 18765, 18766, 18767, 18768, 18769, 18770, 18771, 18772, 18773, 18774, 18775, 18776, 18777, 18778
18779, 18780, 18781, 18782, 18783, 18784, 18785, 18786, 18787, 18788, 18789, 18790, 18791, 18792, 18793, 18794
18795, 18796, 18797, 18798, 18799, 18800, 18801, 18802, 18803, 18804, 18805, 18806, 18807, 18808, 18809, 18810
18811, 18812, 18813, 18814, 18815, 18816, 18817, 18818, 18819, 18820, 18821, 18822, 18823, 18824, 18825, 18826
18827, 18828, 18829, 18830, 18831, 18832, 18833, 18834, 18835, 18836, 18837, 18838, 18839, 18840, 18841, 18842
18843, 18844, 18845, 18846, 18847, 18848, 18849, 18850, 18851, 18852, 18853, 18854, 18855, 18856, 18857, 18858
18859, 18860, 18861, 18862, 18863, 18864, 18865, 18866, 18867, 18868, 18869, 18870, 18871, 18872, 18873, 18874
18875, 18876, 18877, 18878, 18879, 18880, 18881, 18882, 18883, 18884, 18885, 18886, 18887, 18888, 18889, 18890
18891, 18892, 18893, 18894, 18895, 18896, 18897, 18898, 18899, 18900, 18901, 18902, 18903, 18904, 18905, 18906
18907, 18908, 18909, 18910, 18911, 18912, 18913, 18914, 18915, 18916, 18917, 18918, 18919, 18920, 18921, 18922
18923, 18924, 18925, 18926, 18927, 18928, 18929, 18930, 18931, 18932, 18933, 18934, 18935, 18936, 18937, 18938
18939, 18940, 18941, 18942, 18943, 18944, 18945, 18946, 18947, 18948, 18949, 18950, 18951, 18952, 18953, 18954
18955, 18956, 18957, 18958, 18959, 18960, 18961, 18962, 18963, 18964, 18965, 18966, 18967, 18968, 18969, 18970
18971, 18972, 18973, 18974, 18975, 18976, 18977, 18978, 18979, 18980, 18981, 18982, 18983, 18984, 18985, 18986
18987, 18988, 18989, 18990, 18991, 18992, 18993, 18994, 18995, 18996, 18997, 18998, 18999, 19000, 19001
*Nset, nset=Surf-Out-2
18762, 18778, 18794, 18810, 18826, 18842, 18858, 18874, 18890, 18906, 18922, 18938, 18954, 18970, 18986, 
19018, 19034, 19050, 19066, 19082, 19098, 19114, 19130, 19146, 19162, 19178, 19194, 19210, 19226, 19242, 19243
19244, 19245, 19246, 19247, 19248, 19249, 19250, 19251, 19252, 19253, 19254, 19255, 19256, 19257, 19258, 19259
19260, 19261, 19262, 19263, 19264, 19265, 19266, 19267, 19268, 19269, 19270, 19271, 19272, 19273, 19274, 19275
19276, 19277, 19278, 19279, 19280, 19281, 19282, 19283, 19284, 19285, 19286, 19287, 19288, 19289, 19290, 19291
19292, 19293, 19294, 19295, 19296, 19297, 19298, 19299, 19300, 19301, 19302, 19303, 19304, 19305, 19306, 19307
19308, 19309, 19310, 19311, 19312, 19313, 19314, 19315, 19316, 19317, 19318, 19319, 19320, 19321, 19322, 19323
19324, 19325, 19326, 19327, 19328, 19329, 19330, 19331, 19332, 19333, 19334, 19335, 19336, 19337, 19338, 19339
19340, 19341, 19342, 19343, 19344, 19345, 19346, 19347, 19348, 19349, 19350, 19351, 19352, 19353, 19354, 19355
19356, 19357, 19358, 19359, 19360, 19361, 19362, 19363, 19364, 19365, 19366, 19367, 19368, 19369, 19370, 19371
19372, 19373, 19374, 19375, 19376, 19377, 19378, 19379, 19380, 19381, 19382, 19383, 19384, 19385, 19386, 19387
19388, 19389, 19390, 19391, 19392, 19393, 19394, 19395, 19396, 19397, 19398, 19399, 19400, 19401, 19402, 19403
19404, 19405, 19406, 19407, 19408, 19409, 19410, 19411, 19412, 19413, 19414, 19415, 19416, 19417, 19418, 19419
19420, 19421, 19422, 19423, 19424, 19425, 19426, 19427, 19428, 19429, 19430, 19431, 19432, 19433, 19434, 19435
19436, 19437, 19438, 19439, 19440, 19441, 19442, 19443, 19444, 19445, 19446, 19447, 19448, 19449, 19450, 19451
19452, 19453, 19454, 19455, 19456, 19457, 19458, 19459, 19460, 19461, 19462, 19463, 19464, 19465, 19466, 19467
*Nset, nset=Surf-Out-3
18987, 18988, 18989, 18990, 18991, 18992, 18993, 18994, 18995, 18996, 18997, 18998, 18999, 19000, 19001, 
19003, 19004, 19005, 19006, 19007, 19008, 19009, 19010, 19011, 19012, 19013, 19014, 19015, 19016, 19017, 19018
19019, 19020, 19021, 19022, 19023, 19024, 19025, 19026, 19027, 19028, 19029, 19030, 19031, 19032, 19033, 19034
19035, 19036, 19037, 19038, 19039, 19040, 19041, 19042, 19043, 19044, 19045, 19046, 19047, 19048, 19049, 19050
19051, 19052, 19053, 19054, 19055, 19056, 19057, 19058, 19059, 19060, 19061, 19062, 19063, 19064, 19065, 19066
19067, 19068, 19069, 19070, 19071, 19072, 19073, 19074, 19075, 19076, 19077, 19078, 19079, 19080, 19081, 19082
19083, 19084, 19085, 19086, 19087, 19088, 19089, 19090, 19091, 19092, 19093, 19094, 19095, 19096, 19097, 19098
19099, 19100, 19101, 19102, 19103, 19104, 19105, 19106, 19107, 19108, 19109, 19110, 19111, 19112, 19113, 19114
19115, 19116, 19117, 19118, 19119, 19120, 19121, 19122, 19123, 19124, 19125, 19126, 19127, 19128, 19129, 19130
19131, 19132, 19133, 19134, 19135, 19136, 19137, 19138, 19139, 19140, 19141, 19142, 19143, 19144, 19145, 19146
19147, 19148, 19149, 19150, 19151, 19152, 19153, 19154, 19155, 19156, 19157, 19158, 19159, 19160, 19161, 19162
19163, 19164, 19165, 19166, 19167, 19168, 19169, 19170, 19171, 19172, 19173, 19174, 19175, 19176, 19177, 19178
19179, 19180, 19181, 19182, 19183, 19184, 19185, 19186, 19187, 19188, 19189, 19190, 19191, 19192, 19193, 19194
19195, 19196, 19197, 19198, 19199, 19200, 19201, 19202, 19203, 19204, 19205, 19206, 19207, 19208, 19209, 19210
19211, 19212, 19213, 19214, 19215, 19216, 19217, 19218, 19219, 19220, 19221, 19222, 19223, 19224, 19225, 19226
19227, 19228, 19229, 19230, 19231, 19232, 19233, 19234, 19235, 19236, 19237, 19238, 19239, 19240, 19241, 19242
*Solid Section, elset=ALL, material=material1
*Material, name=Material1
*Hyperelastic, neo hooke
0.5, 0.2
*boundary
Surf-In-1,1,1
Surf-In-2,2,2
Surf-In-3,3,3
*EQUATION
2
Surf-Out-1,1,1,Load,1,-1
2
Surf-Out-2,2,1,Load,2,-1
2
Surf-Out-3,3,1,Load,3,-1
*RESTART,WRITE, frequency=0
**step1
*STEP, Name=step1, NLGEOM=YES, inc=10000000000
*STATIC
0.00001,1,0.000001,0.01
*boundary
Load,1,1,15
Load,2,2,15
Load,3,3,15
*Output, field, variable=PRESELECT, frequency=1
*Element Output, Elset=XZ, Position=CENTROIDAL
S
*Element Output, Elset=XY, Position=CENTROIDAL
S
*Element Output, Elset=YZ, Position=CENTROIDAL
S
*Output, history, variable=PRESELECT, frequency=1
*Node Output, nset=Load
COOR1,COOR2,COOR3
*Node Output, nset=Inner1
COOR1,COOR2,COOR3
*Node Output, nset=Inner2
COOR1,COOR2,COOR3
*Node Output, nset=Inner3
COOR1,COOR2,COOR3
*END STEP
