*HEADING
*NODE, NSET=ALLNODES, input=F8Node.txt
*ELEMENT, TYPE=C3D8, ELSET=ALL, input=F8EL.txt
*Nset, nset=Load
30538
*Nset, nset=Inner1
1
*Nset, nset=Inner2
511
*Nset, nset=Inner3
481
*Elset, Elset=XZ
28336
*Elset, Elset=XY
27915
*Elset, Elset=YZ
27900
*Nset, nset=Surf-In-1
  481,   482,   483,   484,   485,   486,   487,   488,   489,   490,   491,   492,   493,   494,   495,   496
  511,   526,   541,   556,   571,   586,   601,   616,   631,   646,   661,   676,   691,   706,   721,  1202
 1203,  1204,  1205,  1206,  1207,  1208,  1209,  1210,  1211,  1212,  1213,  1214,  1215,  1216,  1217,  1232
 1247,  1262,  1277,  1292,  1307,  1322,  1337,  1352,  1367,  1382,  1397,  1412,  1427,  1442,  1923,  1924
 1925,  1926,  1927,  1928,  1929,  1930,  1931,  1932,  1933,  1934,  1935,  1936,  1937,  1938,  1953,  1968
 1983,  1998,  2013,  2028,  2043,  2058,  2073,  2088,  2103,  2118,  2133,  2148,  2163,  2644,  2645,  2646
 2647,  2648,  2649,  2650,  2651,  2652,  2653,  2654,  2655,  2656,  2657,  2658,  2659,  2674,  2689,  2704
 2719,  2734,  2749,  2764,  2779,  2794,  2809,  2824,  2839,  2854,  2869,  2884,  3365,  3366,  3367,  3368
 3369,  3370,  3371,  3372,  3373,  3374,  3375,  3376,  3377,  3378,  3379,  3380,  3395,  3410,  3425,  3440
 3455,  3470,  3485,  3500,  3515,  3530,  3545,  3560,  3575,  3590,  3605,  4086,  4087,  4088,  4089,  4090
 4091,  4092,  4093,  4094,  4095,  4096,  4097,  4098,  4099,  4100,  4101,  4116,  4131,  4146,  4161,  4176
 4191,  4206,  4221,  4236,  4251,  4266,  4281,  4296,  4311,  4326,  4807,  4808,  4809,  4810,  4811,  4812
 4813,  4814,  4815,  4816,  4817,  4818,  4819,  4820,  4821,  4822,  4837,  4852,  4867,  4882,  4897,  4912
 4927,  4942,  4957,  4972,  4987,  5002,  5017,  5032,  5047,  5528,  5529,  5530,  5531,  5532,  5533,  5534
 5535,  5536,  5537,  5538,  5539,  5540,  5541,  5542,  5543,  5558,  5573,  5588,  5603,  5618,  5633,  5648
 5663,  5678,  5693,  5708,  5723,  5738,  5753,  5768,  6249,  6250,  6251,  6252,  6253,  6254,  6255,  6256
 6257,  6258,  6259,  6260,  6261,  6262,  6263,  6264,  6279,  6294,  6309,  6324,  6339,  6354,  6369,  6384
 6399,  6414,  6429,  6444,  6459,  6474,  6489,  6970,  6971,  6972,  6973,  6974,  6975,  6976,  6977,  6978
 6979,  6980,  6981,  6982,  6983,  6984,  6985,  7000,  7015,  7030,  7045,  7060,  7075,  7090,  7105,  7120
 7135,  7150,  7165,  7180,  7195,  7210,  7691,  7692,  7693,  7694,  7695,  7696,  7697,  7698,  7699,  7700
** ... 64 like lines cut
*Nset, nset=Surf-In-2
    1,    17,    33,    49,    65,    81,    97,   113,   129,   145,   161,   177,   193,   209,   225,   241
  257,   273,   289,   305,   321,   337,   353,   369,   385,   401,   417,   433,   449,   465,   481,   722
  738,   754,   770,   786,   802,   818,   834,   850,   866,   882,   898,   914,   930,   946,   962,   978
  994,  1010,  1026,  1042,  1058,  1074,  1090,  1106,  1122,  1138,  1154,  1170,  1186,  1202,  1443,  1459
 1475,  1491,  1507,  1523,  1539,  1555,  1571,  1587,  1603,  1619,  1635,  1651,  1667,  1683,  1699,  1715
 1731,  1747,  1763,  1779,  1795,  1811,  1827,  1843,  1859,  1875,  1891,  1907,  1923,  2164,  2180,  2196
 2212,  2228,  2244,  2260,  2276,  2292,  2308,  2324,  2340,  2356,  2372,  2388,  2404,  2420,  2436,  2452
 2468,  2484,  2500,  2516,  2532,  2548,  2564,  2580,  2596,  2612,  2628,  2644,  2885,  2901,  2917,  2933
 2949,  2965,  2981,  2997,  3013,  3029,  3045,  3061,  3077,  3093,  3109,  3125,  3141,  3157,  3173,  3189
 3205,  3221,  3237,  3253,  3269,  3285,  3301,  3317,  3333,  3349,  3365,  3606,  3622,  3638,  3654,  3670
 3686,  3702,  3718,  3734,  3750,  3766,  3782,  3798,  3814,  3830,  3846,  3862,  3878,  3894,  3910,  3926
 3942,  3958,  3974,  3990,  4006,  4022,  4038,  4054,  4070,  4086,  4327,  4343,  4359,  4375,  4391,  4407
 4423,  4439,  4455,  4471,  4487,  4503,  4519,  4535,  4551,  4567,  4583,  4599,  4615,  4631,  4647,  4663
 4679,  4695,  4711,  4727,  4743,  4759,  4775,  4791,  4807,  5048,  5064,  5080,  5096,  5112,  5128,  5144
 5160,  5176,  5192,  5208,  5224,  5240,  5256,  5272,  5288,  5304,  5320,  5336,  5352,  5368,  5384,  5400
 5416,  5432,  5448,  5464,  5480,  5496,  5512,  5528,  5769,  5785,  5801,  5817,  5833,  5849,  5865,  5881
 5897,  5913,  5929,  5945,  5961,  5977,  5993,  6009,  6025,  6041,  6057,  6073,  6089,  6105,  6121,  6137
 6153,  6169,  6185,  6201,  6217,  6233,  6249,  6490,  6506,  6522,  6538,  6554,  6570,  6586,  6602,  6618
 6634,  6650,  6666,  6682,  6698,  6714,  6730,  6746,  6762,  6778,  6794,  6810,  6826,  6842,  6858,  6874
 6890,  6906,  6922,  6938,  6954,  6970,  7211,  7227,  7243,  7259,  7275,  7291,  7307,  7323,  7339,  7355
** ... 64 like lines cut
*Nset, nset=Surf-In-3
    1,     2,     3,     4,     5,     6,     7,     8,     9,    10,    11,    12,    13,    14,    15,    16
  497,   498,   499,   500,   501,   502,   503,   504,   505,   506,   507,   508,   509,   510,   511,   722
  723,   724,   725,   726,   727,   728,   729,   730,   731,   732,   733,   734,   735,   736,   737,  1218
 1219,  1220,  1221,  1222,  1223,  1224,  1225,  1226,  1227,  1228,  1229,  1230,  1231,  1232,  1443,  1444
 1445,  1446,  1447,  1448,  1449,  1450,  1451,  1452,  1453,  1454,  1455,  1456,  1457,  1458,  1939,  1940
 1941,  1942,  1943,  1944,  1945,  1946,  1947,  1948,  1949,  1950,  1951,  1952,  1953,  2164,  2165,  2166
 2167,  2168,  2169,  2170,  2171,  2172,  2173,  2174,  2175,  2176,  2177,  2178,  2179,  2660,  2661,  2662
 2663,  2664,  2665,  2666,  2667,  2668,  2669,  2670,  2671,  2672,  2673,  2674,  2885,  2886,  2887,  2888
 2889,  2890,  2891,  2892,  2893,  2894,  2895,  2896,  2897,  2898,  2899,  2900,  3381,  3382,  3383,  3384
 3385,  3386,  3387,  3388,  3389,  3390,  3391,  3392,  3393,  3394,  3395,  3606,  3607,  3608,  3609,  3610
 3611,  3612,  3613,  3614,  3615,  3616,  3617,  3618,  3619,  3620,  3621,  4102,  4103,  4104,  4105,  4106
 4107,  4108,  4109,  4110,  4111,  4112,  4113,  4114,  4115,  4116,  4327,  4328,  4329,  4330,  4331,  4332
 4333,  4334,  4335,  4336,  4337,  4338,  4339,  4340,  4341,  4342,  4823,  4824,  4825,  4826,  4827,  4828
 4829,  4830,  4831,  4832,  4833,  4834,  4835,  4836,  4837,  5048,  5049,  5050,  5051,  5052,  5053,  5054
 5055,  5056,  5057,  5058,  5059,  5060,  5061,  5062,  5063,  5544,  5545,  5546,  5547,  5548,  5549,  5550
 5551,  5552,  5553,  5554,  5555,  5556,  5557,  5558,  5769,  5770,  5771,  5772,  5773,  5774,  5775,  5776
 5777,  5778,  5779,  5780,  5781,  5782,  5783,  5784,  6265,  6266,  6267,  6268,  6269,  6270,  6271,  6272
 6273,  6274,  6275,  6276,  6277,  6278,  6279,  6490,  6491,  6492,  6493,  6494,  6495,  6496,  6497,  6498
 6499,  6500,  6501,  6502,  6503,  6504,  6505,  6986,  6987,  6988,  6989,  6990,  6991,  6992,  6993,  6994
 6995,  6996,  6997,  6998,  6999,  7000,  7211,  7212,  7213,  7214,  7215,  7216,  7217,  7218,  7219,  7220
** ... 64 like lines cut
*Nset, nset=Surf-Out-1
30283, 30284, 30285, 30286, 30287, 30288, 30289, 30290, 30291, 30292, 30293, 30294, 30295, 30296, 30297, 30298
30299, 30300, 30301, 30302, 30303, 30304, 30305, 30306, 30307, 30308, 30309, 30310, 30311, 30312, 30313, 30314
30315, 30316, 30317, 30318, 30319, 30320, 30321, 30322, 30323, 30324, 30325, 30326, 30327, 30328, 30329, 30330
30331, 30332, 30333, 30334, 30335, 30336, 30337, 30338, 30339, 30340, 30341, 30342, 30343, 30344, 30345, 30346
30347, 30348, 30349, 30350, 30351, 30352, 30353, 30354, 30355, 30356, 30357, 30358, 30359, 30360, 30361, 30362
30363, 30364, 30365, 30366, 30367, 30368, 30369, 30370, 30371, 30372, 30373, 30374, 30375, 30376, 30377, 30378
30379, 30380, 30381, 30382, 30383, 30384, 30385, 30386, 30387, 30388, 30389, 30390, 30391, 30392, 30393, 30394
30395, 30396, 30397, 30398, 30399, 30400, 30401, 30402, 30403, 30404, 30405, 30406, 30407, 30408, 30409, 30410
30411, 30412, 30413, 30414, 30415, 30416, 30417, 30418, 30419, 30420, 30421, 30422, 30423, 30424, 30425, 30426
30427, 30428, 30429, 30430, 30431, 30432, 30433, 30434, 30435, 30436, 30437, 30438, 30439, 30440, 30441, 30442
30443, 30444, 30445, 30446, 30447, 30448, 30449, 30450, 30451, 30452, 30453, 30454, 30455, 30456, 30457, 30458
30459, 30460, 30461, 30462, 30463, 30464, 30465, 30466, 30467, 30468, 30469, 30470, 30471, 30472, 30473, 30474
30475, 30476, 30477, 30478, 30479, 30480, 30481, 30482, 30483, 30484, 30485, 30486, 30487, 30488, 30489, 30490
30491, 30492, 30493, 30494, 30495, 30496, 30497, 30498, 30499, 30500, 30501, 30502, 30503, 30504, 30505, 30506
30507, 30508, 30509, 30510, 30511, 30512, 30513, 30514, 30515, 30516, 30517, 30518, 30519, 30520, 30521, 30522
30523, 30524, 30525, 30526, 30527, 30528, 30529, 30530, 30531, 30532, 30533, 30534, 30535, 30536, 30537, 
*Nset, nset=Surf-Out-2
30298, 30314, 30330, 30346, 30362, 30378, 30394, 30410, 30426, 30442, 30458, 30474, 30490, 30506, 30522, 
30554, 30570, 30586, 30602, 30618, 30634, 30650, 30666, 30682, 30698, 30714, 30730, 30746, 30762, 30778, 30779
30780, 30781, 30782, 30783, 30784, 30785, 30786, 30787, 30788, 30789, 30790, 30791, 30792, 30793, 30794, 30795
30796, 30797, 30798, 30799, 30800, 30801, 30802, 30803, 30804, 30805, 30806, 30807, 30808, 30809, 30810, 30811
30812, 30813, 30814, 30815, 30816, 30817, 30818, 30819, 30820, 30821, 30822, 30823, 30824, 30825, 30826, 30827
30828, 30829, 30830, 30831, 30832, 30833, 30834, 30835, 30836, 30837, 30838, 30839, 30840, 30841, 30842, 30843
30844, 30845, 30846, 30847, 30848, 30849, 30850, 30851, 30852, 30853, 30854, 30855, 30856, 30857, 30858, 30859
30860, 30861, 30862, 30863, 30864, 30865, 30866, 30867, 30868, 30869, 30870, 30871, 30872, 30873, 30874, 30875
30876, 30877, 30878, 30879, 30880, 30881, 30882, 30883, 30884, 30885, 30886, 30887, 30888, 30889, 30890, 30891
30892, 30893, 30894, 30895, 30896, 30897, 30898, 30899, 30900, 30901, 30902, 30903, 30904, 30905, 30906, 30907
30908, 30909, 30910, 30911, 30912, 30913, 30914, 30915, 30916, 30917, 30918, 30919, 30920, 30921, 30922, 30923
30924, 30925, 30926, 30927, 30928, 30929, 30930, 30931, 30932, 30933, 30934, 30935, 30936, 30937, 30938, 30939
30940, 30941, 30942, 30943, 30944, 30945, 30946, 30947, 30948, 30949, 30950, 30951, 30952, 30953, 30954, 30955
30956, 30957, 30958, 30959, 30960, 30961, 30962, 30963, 30964, 30965, 30966, 30967, 30968, 30969, 30970, 30971
30972, 30973, 30974, 30975, 30976, 30977, 30978, 30979, 30980, 30981, 30982, 30983, 30984, 30985, 30986, 30987
30988, 30989, 30990, 30991, 30992, 30993, 30994, 30995, 30996, 30997, 30998, 30999, 31000, 31001, 31002, 31003
*Nset, nset=Surf-Out-3
30523, 30524, 30525, 30526, 30527, 30528, 30529, 30530, 30531, 30532, 30533, 30534, 30535, 30536, 30537, 
30539, 30540, 30541, 30542, 30543, 30544, 30545, 30546, 30547, 30548, 30549, 30550, 30551, 30552, 30553, 30554
30555, 30556, 30557, 30558, 30559, 30560, 30561, 30562, 30563, 30564, 30565, 30566, 30567, 30568, 30569, 30570
30571, 30572, 30573, 30574, 30575, 30576, 30577, 30578, 30579, 30580, 30581, 30582, 30583, 30584, 30585, 30586
30587, 30588, 30589, 30590, 30591, 30592, 30593, 30594, 30595, 30596, 30597, 30598, 30599, 30600, 30601, 30602
30603, 30604, 30605, 30606, 30607, 30608, 30609, 30610, 30611, 30612, 30613, 30614, 30615, 30616, 30617, 30618
30619, 30620, 30621, 30622, 30623, 30624, 30625, 30626, 30627, 30628, 30629, 30630, 30631, 30632, 30633, 30634
30635, 30636, 30637, 30638, 30639, 30640, 30641, 30642, 30643, 30644, 30645, 30646, 30647, 30648, 30649, 30650
30651, 30652, 30653, 30654, 30655, 30656, 30657, 30658, 30659, 30660, 30661, 30662, 30663, 30664, 30665, 30666
30667, 30668, 30669, 30670, 30671, 30672, 30673, 30674, 30675, 30676, 30677, 30678, 30679, 30680, 30681, 30682
30683, 30684, 30685, 30686, 30687, 30688, 30689, 30690, 30691, 30692, 30693, 30694, 30695, 30696, 30697, 30698
30699, 30700, 30701, 30702, 30703, 30704, 30705, 30706, 30707, 30708, 30709, 30710, 30711, 30712, 30713, 30714
30715, 30716, 30717, 30718, 30719, 30720, 30721, 30722, 30723, 30724, 30725, 30726, 30727, 30728, 30729, 30730
30731, 30732, 30733, 30734, 30735, 30736, 30737, 30738, 30739, 30740, 30741, 30742, 30743, 30744, 30745, 30746
30747, 30748, 30749, 30750, 30751, 30752, 30753, 30754, 30755, 30756, 30757, 30758, 30759, 30760, 30761, 30762
30763, 30764, 30765, 30766, 30767, 30768, 30769, 30770, 30771, 30772, 30773, 30774, 30775, 30776, 30777, 30778
*Solid Section, elset=ALL, material=material1
*Material, name=Material1
*Hyperelastic, neo hooke
0.5, 0.2
*boundary
Surf-In-1,1,1
Surf-In-2,2,2
Surf-In-3,3,3
*EQUATION
2
Surf-Out-1,1,1,Load,1,-1
2
Surf-Out-2,2,1,Load,2,-1
2
Surf-Out-3,3,1,Load,3,-1
*RESTART,WRITE, frequency=0
**step1
*STEP, Name=step1, NLGEOM=YES, inc=10000000000
*STATIC
0.00001,1,0.000001,0.01
*boundary
Load,1,1,190
Load,2,2,190
Load,3,3,190
*Output, field, variable=PRESELECT, frequency=1
*Element Output, Elset=XZ, Position=CENTROIDAL
S
*Element Output, Elset=XY, Position=CENTROIDAL
S
*Element Output, Elset=YZ, Position=CENTROIDAL
S
*Output, history, variable=PRESELECT, frequency=1
*Node Output, nset=Load
COOR1,COOR2,COOR3
*Node Output, nset=Inner1
COOR1,COOR2,COOR3
*Node Output, nset=Inner2
COOR1,COOR2,COOR3
*Node Output, nset=Inner3
COOR1,COOR2,COOR3
*END STEP
